CM Plane
CM Start angle A1 = 0
CM Stop angle A2 = 360
CM Radial sections = 12
CM Circular sections = 5
CM Rotate X, Y, Z = 0, 0, 0
CM Move X, Y, Z = 0, 0, 0
CM Helix
CM Length L in mtr. = 0.3212
CM Radius R1 in cm. = 1.36
CM Radius R2 in cm. = 1.36
CM Number of turns = 15
CM Segments per turn = 16
CM Rotate X, Y, Z = 0, 0, 0
CM Move X, Y, Z = 0, 0, 0
CE
GW     1    1       .0       .0       .0   .00857       .0       .0  .000225
GW     2    1   .00857       .0       .0   .01714       .0       .0  .000503
GW     3    1   .01714       .0       .0   .02571       .0       .0  .000668
GW     4    1   .02571       .0       .0   .03428       .0       .0  .000777
GW     5    1   .03428       .0       .0   .04285       .0       .0  .000855
GW     6    1       .0       .0       .0  .007422  .004285       .0  .000225
GW     7    1  .007422  .004285       .0  .014844   .00857       .0  .000503
GW     8    1  .014844   .00857       .0  .022266  .012855       .0  .000668
GW     9    1  .022266  .012855       .0  .029687   .01714       .0  .000777
GW    10    1  .029687   .01714       .0  .037109  .021425       .0  .000855
GW    11    1       .0       .0       .0  .004285  .007422       .0  .000225
GW    12    1  .004285  .007422       .0   .00857  .014844       .0  .000503
GW    13    1   .00857  .014844       .0  .012855  .022266       .0  .000668
GW    14    1  .012855  .022266       .0   .01714  .029687       .0  .000777
GW    15    1   .01714  .029687       .0  .021425  .037109       .0  .000855
GW    16    1       .0       .0       .0       .0   .00857       .0  .000225
GW    17    1       .0   .00857       .0       .0   .01714       .0  .000503
GW    18    1       .0   .01714       .0       .0   .02571       .0  .000668
GW    19    1       .0   .02571       .0       .0   .03428       .0  .000777
GW    20    1       .0   .03428       .0       .0   .04285       .0  .000855
GW    21    1       .0       .0       .0 -.004285  .007422       .0  .000225
GW    22    1 -.004285  .007422       .0  -.00857  .014844       .0  .000503
GW    23    1  -.00857  .014844       .0 -.012855  .022266       .0  .000668
GW    24    1 -.012855  .022266       .0  -.01714  .029687       .0  .000777
GW    25    1  -.01714  .029687       .0 -.021425  .037109       .0  .000855
GW    26    1       .0       .0       .0 -.007422  .004285       .0  .000225
GW    27    1 -.007422  .004285       .0 -.014844   .00857       .0  .000503
GW    28    1 -.014844   .00857       .0 -.022266  .012855       .0  .000668
GW    29    1 -.022266  .012855       .0 -.029687   .01714       .0  .000777
GW    30    1 -.029687   .01714       .0 -.037109  .021425       .0  .000855
GW    31    1       .0       .0       .0  -.00857       .0       .0  .000225
GW    32    1  -.00857       .0       .0  -.01714       .0       .0  .000503
GW    33    1  -.01714       .0       .0  -.02571       .0       .0  .000668
GW    34    1  -.02571       .0       .0  -.03428       .0       .0  .000777
GW    35    1  -.03428       .0       .0  -.04285       .0       .0  .000855
GW    36    1       .0       .0       .0 -.007422 -.004285       .0  .000225
GW    37    1 -.007422 -.004285       .0 -.014844  -.00857       .0  .000503
GW    38    1 -.014844  -.00857       .0 -.022266 -.012855       .0  .000668
GW    39    1 -.022266 -.012855       .0 -.029687  -.01714       .0  .000777
GW    40    1 -.029687  -.01714       .0 -.037109 -.021425       .0  .000855
GW    41    1       .0       .0       .0 -.004285 -.007422       .0  .000225
GW    42    1 -.004285 -.007422       .0  -.00857 -.014844       .0  .000503
GW    43    1  -.00857 -.014844       .0 -.012855 -.022266       .0  .000668
GW    44    1 -.012855 -.022266       .0  -.01714 -.029687       .0  .000777
GW    45    1  -.01714 -.029687       .0 -.021425 -.037109       .0  .000855
GW    46    1       .0       .0       .0       .0  -.00857       .0  .000225
GW    47    1       .0  -.00857       .0       .0  -.01714       .0  .000503
GW    48    1       .0  -.01714       .0       .0  -.02571       .0  .000668
GW    49    1       .0  -.02571       .0       .0  -.03428       .0  .000777
GW    50    1       .0  -.03428       .0       .0  -.04285       .0  .000855
GW    51    1       .0       .0       .0  .004285 -.007422       .0  .000225
GW    52    1  .004285 -.007422       .0   .00857 -.014844       .0  .000503
GW    53    1   .00857 -.014844       .0  .012855 -.022266       .0  .000668
GW    54    1  .012855 -.022266       .0   .01714 -.029687       .0  .000777
GW    55    1   .01714 -.029687       .0  .021425 -.037109       .0  .000855
GW    56    1       .0       .0       .0  .007422 -.004285       .0  .000225
GW    57    1  .007422 -.004285       .0  .014844  -.00857       .0  .000503
GW    58    1  .014844  -.00857       .0  .022266 -.012855       .0  .000668
GW    59    1  .022266 -.012855       .0  .029687  -.01714       .0  .000777
GW    60    1  .029687  -.01714       .0  .037109 -.021425       .0  .000855
GW    61    1   .00857       .0       .0  .007422  .004285       .0  .000225
GW    62    1  .007422  .004285       .0  .004285  .007422       .0  .000225
GW    63    1  .004285  .007422       .0       .0   .00857       .0  .000225
GW    64    1       .0   .00857       .0 -.004285  .007422       .0  .000225
GW    65    1 -.004285  .007422       .0 -.007422  .004285       .0  .000225
GW    66    1 -.007422  .004285       .0  -.00857       .0       .0  .000225
GW    67    1  -.00857       .0       .0 -.007422 -.004285       .0  .000225
GW    68    1 -.007422 -.004285       .0 -.004285 -.007422       .0  .000225
GW    69    1 -.004285 -.007422       .0       .0  -.00857       .0  .000225
GW    70    1       .0  -.00857       .0  .004285 -.007422       .0  .000225
GW    71    1  .004285 -.007422       .0  .007422 -.004285       .0  .000225
GW    72    1  .007422 -.004285       .0   .00857       .0       .0  .000225
GW    73    1   .01714       .0       .0  .014844   .00857       .0  .000503
GW    74    1  .014844   .00857       .0   .00857  .014844       .0  .000503
GW    75    1   .00857  .014844       .0       .0   .01714       .0  .000503
GW    76    1       .0   .01714       .0  -.00857  .014844       .0  .000503
GW    77    1  -.00857  .014844       .0 -.014844   .00857       .0  .000503
GW    78    1 -.014844   .00857       .0  -.01714       .0       .0  .000503
GW    79    1  -.01714       .0       .0 -.014844  -.00857       .0  .000503
GW    80    1 -.014844  -.00857       .0  -.00857 -.014844       .0  .000503
GW    81    1  -.00857 -.014844       .0       .0  -.01714       .0  .000503
GW    82    1       .0  -.01714       .0   .00857 -.014844       .0  .000503
GW    83    1   .00857 -.014844       .0  .014844  -.00857       .0  .000503
GW    84    1  .014844  -.00857       .0   .01714       .0       .0  .000503
GW    85    1   .02571       .0       .0  .022266  .012855       .0  .000668
GW    86    1  .022266  .012855       .0  .012855  .022266       .0  .000668
GW    87    1  .012855  .022266       .0       .0   .02571       .0  .000668
GW    88    1       .0   .02571       .0 -.012855  .022266       .0  .000668
GW    89    1 -.012855  .022266       .0 -.022266  .012855       .0  .000668
GW    90    1 -.022266  .012855       .0  -.02571       .0       .0  .000668
GW    91    1  -.02571       .0       .0 -.022266 -.012855       .0  .000668
GW    92    1 -.022266 -.012855       .0 -.012855 -.022266       .0  .000668
GW    93    1 -.012855 -.022266       .0       .0  -.02571       .0  .000668
GW    94    1       .0  -.02571       .0  .012855 -.022266       .0  .000668
GW    95    1  .012855 -.022266       .0  .022266 -.012855       .0  .000668
GW    96    1  .022266 -.012855       .0   .02571       .0       .0  .000668
GW    97    1   .03428       .0       .0  .029687   .01714       .0  .000777
GW    98    1  .029687   .01714       .0   .01714  .029687       .0  .000777
GW    99    1   .01714  .029687       .0       .0   .03428       .0  .000777
GW   100    1       .0   .03428       .0  -.01714  .029687       .0  .000777
GW   101    1  -.01714  .029687       .0 -.029687   .01714       .0  .000777
GW   102    1 -.029687   .01714       .0  -.03428       .0       .0  .000777
GW   103    1  -.03428       .0       .0 -.029687  -.01714       .0  .000777
GW   104    1 -.029687  -.01714       .0  -.01714 -.029687       .0  .000777
GW   105    1  -.01714 -.029687       .0       .0  -.03428       .0  .000777
GW   106    1       .0  -.03428       .0   .01714 -.029687       .0  .000777
GW   107    1   .01714 -.029687       .0  .029687  -.01714       .0  .000777
GW   108    1  .029687  -.01714       .0   .03428       .0       .0  .000777
GW   109    1   .04285       .0       .0  .037109  .021425       .0  .000855
GW   110    1  .037109  .021425       .0  .021425  .037109       .0  .000855
GW   111    1  .021425  .037109       .0       .0   .04285       .0  .000855
GW   112    1       .0   .04285       .0 -.021425  .037109       .0  .000855
GW   113    1 -.021425  .037109       .0 -.037109  .021425       .0  .000855
GW   114    1 -.037109  .021425       .0  -.04285       .0       .0  .000855
GW   115    1  -.04285       .0       .0 -.037109 -.021425       .0  .000855
GW   116    1 -.037109 -.021425       .0 -.021425 -.037109       .0  .000855
GW   117    1 -.021425 -.037109       .0       .0  -.04285       .0  .000855
GW   118    1       .0  -.04285       .0  .021425 -.037109       .0  .000855
GW   119    1  .021425 -.037109       .0  .037109 -.021425       .0  .000855
GW   120    1  .037109 -.021425       .0   .04285       .0       .0  .000855
GW   121    1    .0136       .0       .0  .012565  .005204  .001338  .000428
GW   122    1  .012565  .005204  .001338  .009617  .009617  .002677  .000428
GW   123    1  .009617  .009617  .002677  .005204  .012565  .004015  .000428
GW   124    1  .005204  .012565  .004015       .0    .0136  .005353  .000428
GW   125    1       .0    .0136  .005353 -.005204  .012565  .006692  .000428
GW   126    1 -.005204  .012565  .006692 -.009617  .009617   .00803  .000428
GW   127    1 -.009617  .009617   .00803 -.012565  .005204  .009368  .000428
GW   128    1 -.012565  .005204  .009368   -.0136       .0  .010707  .000428
GW   129    1   -.0136       .0  .010707 -.012565 -.005204  .012045  .000428
GW   130    1 -.012565 -.005204  .012045 -.009617 -.009617  .013383  .000428
GW   131    1 -.009617 -.009617  .013383 -.005204 -.012565  .014722  .000428
GW   132    1 -.005204 -.012565  .014722       .0   -.0136   .01606  .000428
GW   133    1       .0   -.0136   .01606  .005204 -.012565  .017398  .000428
GW   134    1  .005204 -.012565  .017398  .009617 -.009617  .018737  .000428
GW   135    1  .009617 -.009617  .018737  .012565 -.005204  .020075  .000428
GW   136    1  .012565 -.005204  .020075    .0136       .0  .021413  .000428
GW   137    1    .0136       .0  .021413  .012565  .005204  .022752  .000428
GW   138    1  .012565  .005204  .022752  .009617  .009617   .02409  .000428
GW   139    1  .009617  .009617   .02409  .005204  .012565  .025428  .000428
GW   140    1  .005204  .012565  .025428       .0    .0136  .026767  .000428
GW   141    1       .0    .0136  .026767 -.005204  .012565  .028105  .000428
GW   142    1 -.005204  .012565  .028105 -.009617  .009617  .029443  .000428
GW   143    1 -.009617  .009617  .029443 -.012565  .005204  .030782  .000428
GW   144    1 -.012565  .005204  .030782   -.0136       .0   .03212  .000428
GW   145    1   -.0136       .0   .03212 -.012565 -.005204  .033458  .000428
GW   146    1 -.012565 -.005204  .033458 -.009617 -.009617  .034797  .000428
GW   147    1 -.009617 -.009617  .034797 -.005204 -.012565  .036135  .000428
GW   148    1 -.005204 -.012565  .036135       .0   -.0136  .037473  .000428
GW   149    1       .0   -.0136  .037473  .005204 -.012565  .038812  .000428
GW   150    1  .005204 -.012565  .038812  .009617 -.009617   .04015  .000428
GW   151    1  .009617 -.009617   .04015  .012565 -.005204  .041488  .000428
GW   152    1  .012565 -.005204  .041488    .0136       .0  .042827  .000428
GW   153    1    .0136       .0  .042827  .012565  .005204  .044165  .000428
GW   154    1  .012565  .005204  .044165  .009617  .009617  .045503  .000428
GW   155    1  .009617  .009617  .045503  .005204  .012565  .046842  .000428
GW   156    1  .005204  .012565  .046842       .0    .0136   .04818  .000428
GW   157    1       .0    .0136   .04818 -.005204  .012565  .049518  .000428
GW   158    1 -.005204  .012565  .049518 -.009617  .009617  .050857  .000428
GW   159    1 -.009617  .009617  .050857 -.012565  .005204  .052195  .000428
GW   160    1 -.012565  .005204  .052195   -.0136       .0  .053533  .000428
GW   161    1   -.0136       .0  .053533 -.012565 -.005204  .054872  .000428
GW   162    1 -.012565 -.005204  .054872 -.009617 -.009617   .05621  .000428
GW   163    1 -.009617 -.009617   .05621 -.005204 -.012565  .057548  .000428
GW   164    1 -.005204 -.012565  .057548       .0   -.0136  .058887  .000428
GW   165    1       .0   -.0136  .058887  .005204 -.012565  .060225  .000428
GW   166    1  .005204 -.012565  .060225  .009617 -.009617  .061563  .000428
GW   167    1  .009617 -.009617  .061563  .012565 -.005204  .062902  .000428
GW   168    1  .012565 -.005204  .062902    .0136       .0   .06424  .000428
GW   169    1    .0136       .0   .06424  .012565  .005204  .065578  .000428
GW   170    1  .012565  .005204  .065578  .009617  .009617  .066917  .000428
GW   171    1  .009617  .009617  .066917  .005204  .012565  .068255  .000428
GW   172    1  .005204  .012565  .068255       .0    .0136  .069593  .000428
GW   173    1       .0    .0136  .069593 -.005204  .012565  .070932  .000428
GW   174    1 -.005204  .012565  .070932 -.009617  .009617   .07227  .000428
GW   175    1 -.009617  .009617   .07227 -.012565  .005204  .073608  .000428
GW   176    1 -.012565  .005204  .073608   -.0136       .0  .074947  .000428
GW   177    1   -.0136       .0  .074947 -.012565 -.005204  .076285  .000428
GW   178    1 -.012565 -.005204  .076285 -.009617 -.009617  .077623  .000428
GW   179    1 -.009617 -.009617  .077623 -.005204 -.012565  .078962  .000428
GW   180    1 -.005204 -.012565  .078962       .0   -.0136    .0803  .000428
GW   181    1       .0   -.0136    .0803  .005204 -.012565  .081638  .000428
GW   182    1  .005204 -.012565  .081638  .009617 -.009617  .082977  .000428
GW   183    1  .009617 -.009617  .082977  .012565 -.005204  .084315  .000428
GW   184    1  .012565 -.005204  .084315    .0136       .0  .085653  .000428
GW   185    1    .0136       .0  .085653  .012565  .005204  .086992  .000428
GW   186    1  .012565  .005204  .086992  .009617  .009617   .08833  .000428
GW   187    1  .009617  .009617   .08833  .005204  .012565  .089668  .000428
GW   188    1  .005204  .012565  .089668       .0    .0136  .091007  .000428
GW   189    1       .0    .0136  .091007 -.005204  .012565  .092345  .000428
GW   190    1 -.005204  .012565  .092345 -.009617  .009617  .093683  .000428
GW   191    1 -.009617  .009617  .093683 -.012565  .005204  .095022  .000428
GW   192    1 -.012565  .005204  .095022   -.0136       .0   .09636  .000428
GW   193    1   -.0136       .0   .09636 -.012565 -.005204  .097698  .000428
GW   194    1 -.012565 -.005204  .097698 -.009617 -.009617  .099037  .000428
GW   195    1 -.009617 -.009617  .099037 -.005204 -.012565  .100375  .000428
GW   196    1 -.005204 -.012565  .100375       .0   -.0136  .101713  .000428
GW   197    1       .0   -.0136  .101713  .005204 -.012565  .103052  .000428
GW   198    1  .005204 -.012565  .103052  .009617 -.009617   .10439  .000428
GW   199    1  .009617 -.009617   .10439  .012565 -.005204  .105728  .000428
GW   200    1  .012565 -.005204  .105728    .0136       .0  .107067  .000428
GW   201    1    .0136       .0  .107067  .012565  .005204  .108405  .000428
GW   202    1  .012565  .005204  .108405  .009617  .009617  .109743  .000428
GW   203    1  .009617  .009617  .109743  .005204  .012565  .111082  .000428
GW   204    1  .005204  .012565  .111082       .0    .0136   .11242  .000428
GW   205    1       .0    .0136   .11242 -.005204  .012565  .113758  .000428
GW   206    1 -.005204  .012565  .113758 -.009617  .009617  .115097  .000428
GW   207    1 -.009617  .009617  .115097 -.012565  .005204  .116435  .000428
GW   208    1 -.012565  .005204  .116435   -.0136       .0  .117773  .000428
GW   209    1   -.0136       .0  .117773 -.012565 -.005204  .119112  .000428
GW   210    1 -.012565 -.005204  .119112 -.009617 -.009617   .12045  .000428
GW   211    1 -.009617 -.009617   .12045 -.005204 -.012565  .121788  .000428
GW   212    1 -.005204 -.012565  .121788       .0   -.0136  .123127  .000428
GW   213    1       .0   -.0136  .123127  .005204 -.012565  .124465  .000428
GW   214    1  .005204 -.012565  .124465  .009617 -.009617  .125803  .000428
GW   215    1  .009617 -.009617  .125803  .012565 -.005204  .127142  .000428
GW   216    1  .012565 -.005204  .127142    .0136       .0   .12848  .000428
GW   217    1    .0136       .0   .12848  .012565  .005204  .129818  .000428
GW   218    1  .012565  .005204  .129818  .009617  .009617  .131157  .000428
GW   219    1  .009617  .009617  .131157  .005204  .012565  .132495  .000428
GW   220    1  .005204  .012565  .132495       .0    .0136  .133833  .000428
GW   221    1       .0    .0136  .133833 -.005204  .012565  .135172  .000428
GW   222    1 -.005204  .012565  .135172 -.009617  .009617   .13651  .000428
GW   223    1 -.009617  .009617   .13651 -.012565  .005204  .137848  .000428
GW   224    1 -.012565  .005204  .137848   -.0136       .0  .139187  .000428
GW   225    1   -.0136       .0  .139187 -.012565 -.005204  .140525  .000428
GW   226    1 -.012565 -.005204  .140525 -.009617 -.009617  .141863  .000428
GW   227    1 -.009617 -.009617  .141863 -.005204 -.012565  .143202  .000428
GW   228    1 -.005204 -.012565  .143202       .0   -.0136   .14454  .000428
GW   229    1       .0   -.0136   .14454  .005204 -.012565  .145878  .000428
GW   230    1  .005204 -.012565  .145878  .009617 -.009617  .147217  .000428
GW   231    1  .009617 -.009617  .147217  .012565 -.005204  .148555  .000428
GW   232    1  .012565 -.005204  .148555    .0136       .0  .149893  .000428
GW   233    1    .0136       .0  .149893  .012565  .005204  .151232  .000428
GW   234    1  .012565  .005204  .151232  .009617  .009617   .15257  .000428
GW   235    1  .009617  .009617   .15257  .005204  .012565  .153908  .000428
GW   236    1  .005204  .012565  .153908       .0    .0136  .155247  .000428
GW   237    1       .0    .0136  .155247 -.005204  .012565  .156585  .000428
GW   238    1 -.005204  .012565  .156585 -.009617  .009617  .157923  .000428
GW   239    1 -.009617  .009617  .157923 -.012565  .005204  .159262  .000428
GW   240    1 -.012565  .005204  .159262   -.0136       .0    .1606  .000428
GW   241    1   -.0136       .0    .1606 -.012565 -.005204  .161938  .000428
GW   242    1 -.012565 -.005204  .161938 -.009617 -.009617  .163277  .000428
GW   243    1 -.009617 -.009617  .163277 -.005204 -.012565  .164615  .000428
GW   244    1 -.005204 -.012565  .164615       .0   -.0136  .165953  .000428
GW   245    1       .0   -.0136  .165953  .005204 -.012565  .167292  .000428
GW   246    1  .005204 -.012565  .167292  .009617 -.009617   .16863  .000428
GW   247    1  .009617 -.009617   .16863  .012565 -.005204  .169968  .000428
GW   248    1  .012565 -.005204  .169968    .0136       .0  .171307  .000428
GW   249    1    .0136       .0  .171307  .012565  .005204  .172645  .000428
GW   250    1  .012565  .005204  .172645  .009617  .009617  .173983  .000428
GW   251    1  .009617  .009617  .173983  .005204  .012565  .175322  .000428
GW   252    1  .005204  .012565  .175322       .0    .0136   .17666  .000428
GW   253    1       .0    .0136   .17666 -.005204  .012565  .177998  .000428
GW   254    1 -.005204  .012565  .177998 -.009617  .009617  .179337  .000428
GW   255    1 -.009617  .009617  .179337 -.012565  .005204  .180675  .000428
GW   256    1 -.012565  .005204  .180675   -.0136       .0  .182013  .000428
GW   257    1   -.0136       .0  .182013 -.012565 -.005204  .183352  .000428
GW   258    1 -.012565 -.005204  .183352 -.009617 -.009617   .18469  .000428
GW   259    1 -.009617 -.009617   .18469 -.005204 -.012565  .186028  .000428
GW   260    1 -.005204 -.012565  .186028       .0   -.0136  .187367  .000428
GW   261    1       .0   -.0136  .187367  .005204 -.012565  .188705  .000428
GW   262    1  .005204 -.012565  .188705  .009617 -.009617  .190043  .000428
GW   263    1  .009617 -.009617  .190043  .012565 -.005204  .191382  .000428
GW   264    1  .012565 -.005204  .191382    .0136       .0   .19272  .000428
GW   265    1    .0136       .0   .19272  .012565  .005204  .194058  .000428
GW   266    1  .012565  .005204  .194058  .009617  .009617  .195397  .000428
GW   267    1  .009617  .009617  .195397  .005204  .012565  .196735  .000428
GW   268    1  .005204  .012565  .196735       .0    .0136  .198073  .000428
GW   269    1       .0    .0136  .198073 -.005204  .012565  .199412  .000428
GW   270    1 -.005204  .012565  .199412 -.009617  .009617   .20075  .000428
GW   271    1 -.009617  .009617   .20075 -.012565  .005204  .202088  .000428
GW   272    1 -.012565  .005204  .202088   -.0136       .0  .203427  .000428
GW   273    1   -.0136       .0  .203427 -.012565 -.005204  .204765  .000428
GW   274    1 -.012565 -.005204  .204765 -.009617 -.009617  .206103  .000428
GW   275    1 -.009617 -.009617  .206103 -.005204 -.012565  .207442  .000428
GW   276    1 -.005204 -.012565  .207442       .0   -.0136   .20878  .000428
GW   277    1       .0   -.0136   .20878  .005204 -.012565  .210118  .000428
GW   278    1  .005204 -.012565  .210118  .009617 -.009617  .211457  .000428
GW   279    1  .009617 -.009617  .211457  .012565 -.005204  .212795  .000428
GW   280    1  .012565 -.005204  .212795    .0136       .0  .214133  .000428
GW   281    1    .0136       .0  .214133  .012565  .005204  .215472  .000428
GW   282    1  .012565  .005204  .215472  .009617  .009617   .21681  .000428
GW   283    1  .009617  .009617   .21681  .005204  .012565  .218148  .000428
GW   284    1  .005204  .012565  .218148       .0    .0136  .219487  .000428
GW   285    1       .0    .0136  .219487 -.005204  .012565  .220825  .000428
GW   286    1 -.005204  .012565  .220825 -.009617  .009617  .222163  .000428
GW   287    1 -.009617  .009617  .222163 -.012565  .005204  .223502  .000428
GW   288    1 -.012565  .005204  .223502   -.0136       .0   .22484  .000428
GW   289    1   -.0136       .0   .22484 -.012565 -.005204  .226178  .000428
GW   290    1 -.012565 -.005204  .226178 -.009617 -.009617  .227517  .000428
GW   291    1 -.009617 -.009617  .227517 -.005204 -.012565  .228855  .000428
GW   292    1 -.005204 -.012565  .228855       .0   -.0136  .230193  .000428
GW   293    1       .0   -.0136  .230193  .005204 -.012565  .231532  .000428
GW   294    1  .005204 -.012565  .231532  .009617 -.009617   .23287  .000428
GW   295    1  .009617 -.009617   .23287  .012565 -.005204  .234208  .000428
GW   296    1  .012565 -.005204  .234208    .0136       .0  .235547  .000428
GW   297    1    .0136       .0  .235547  .012565  .005204  .236885  .000428
GW   298    1  .012565  .005204  .236885  .009617  .009617  .238223  .000428
GW   299    1  .009617  .009617  .238223  .005204  .012565  .239562  .000428
GW   300    1  .005204  .012565  .239562       .0    .0136    .2409  .000428
GW   301    1       .0    .0136    .2409 -.005204  .012565  .242238  .000428
GW   302    1 -.005204  .012565  .242238 -.009617  .009617  .243577  .000428
GW   303    1 -.009617  .009617  .243577 -.012565  .005204  .244915  .000428
GW   304    1 -.012565  .005204  .244915   -.0136       .0  .246253  .000428
GW   305    1   -.0136       .0  .246253 -.012565 -.005204  .247592  .000428
GW   306    1 -.012565 -.005204  .247592 -.009617 -.009617   .24893  .000428
GW   307    1 -.009617 -.009617   .24893 -.005204 -.012565  .250268  .000428
GW   308    1 -.005204 -.012565  .250268       .0   -.0136  .251607  .000428
GW   309    1       .0   -.0136  .251607  .005204 -.012565  .252945  .000428
GW   310    1  .005204 -.012565  .252945  .009617 -.009617  .254283  .000428
GW   311    1  .009617 -.009617  .254283  .012565 -.005204  .255622  .000428
GW   312    1  .012565 -.005204  .255622    .0136       .0   .25696  .000428
GW   313    1    .0136       .0   .25696  .012565  .005204  .258298  .000428
GW   314    1  .012565  .005204  .258298  .009617  .009617  .259637  .000428
GW   315    1  .009617  .009617  .259637  .005204  .012565  .260975  .000428
GW   316    1  .005204  .012565  .260975       .0    .0136  .262313  .000428
GW   317    1       .0    .0136  .262313 -.005204  .012565  .263652  .000428
GW   318    1 -.005204  .012565  .263652 -.009617  .009617   .26499  .000428
GW   319    1 -.009617  .009617   .26499 -.012565  .005204  .266328  .000428
GW   320    1 -.012565  .005204  .266328   -.0136       .0  .267667  .000428
GW   321    1   -.0136       .0  .267667 -.012565 -.005204  .269005  .000428
GW   322    1 -.012565 -.005204  .269005 -.009617 -.009617  .270343  .000428
GW   323    1 -.009617 -.009617  .270343 -.005204 -.012565  .271682  .000428
GW   324    1 -.005204 -.012565  .271682       .0   -.0136   .27302  .000428
GW   325    1       .0   -.0136   .27302  .005204 -.012565  .274358  .000428
GW   326    1  .005204 -.012565  .274358  .009617 -.009617  .275697  .000428
GW   327    1  .009617 -.009617  .275697  .012565 -.005204  .277035  .000428
GW   328    1  .012565 -.005204  .277035    .0136       .0  .278373  .000428
GW   329    1    .0136       .0  .278373  .012565  .005204  .279712  .000428
GW   330    1  .012565  .005204  .279712  .009617  .009617   .28105  .000428
GW   331    1  .009617  .009617   .28105  .005204  .012565  .282388  .000428
GW   332    1  .005204  .012565  .282388       .0    .0136  .283727  .000428
GW   333    1       .0    .0136  .283727 -.005204  .012565  .285065  .000428
GW   334    1 -.005204  .012565  .285065 -.009617  .009617  .286403  .000428
GW   335    1 -.009617  .009617  .286403 -.012565  .005204  .287742  .000428
GW   336    1 -.012565  .005204  .287742   -.0136       .0   .28908  .000428
GW   337    1   -.0136       .0   .28908 -.012565 -.005204  .290418  .000428
GW   338    1 -.012565 -.005204  .290418 -.009617 -.009617  .291757  .000428
GW   339    1 -.009617 -.009617  .291757 -.005204 -.012565  .293095  .000428
GW   340    1 -.005204 -.012565  .293095       .0   -.0136  .294433  .000428
GW   341    1       .0   -.0136  .294433  .005204 -.012565  .295772  .000428
GW   342    1  .005204 -.012565  .295772  .009617 -.009617   .29711  .000428
GW   343    1  .009617 -.009617   .29711  .012565 -.005204  .298448  .000428
GW   344    1  .012565 -.005204  .298448    .0136       .0  .299787  .000428
GW   345    1    .0136       .0  .299787  .012565  .005204  .301125  .000428
GW   346    1  .012565  .005204  .301125  .009617  .009617  .302463  .000428
GW   347    1  .009617  .009617  .302463  .005204  .012565  .303802  .000428
GW   348    1  .005204  .012565  .303802       .0    .0136   .30514  .000428
GW   349    1       .0    .0136   .30514 -.005204  .012565  .306478  .000428
GW   350    1 -.005204  .012565  .306478 -.009617  .009617  .307817  .000428
GW   351    1 -.009617  .009617  .307817 -.012565  .005204  .309155  .000428
GW   352    1 -.012565  .005204  .309155   -.0136       .0  .310493  .000428
GW   353    1   -.0136       .0  .310493 -.012565 -.005204  .311832  .000428
GW   354    1 -.012565 -.005204  .311832 -.009617 -.009617   .31317  .000428
GW   355    1 -.009617 -.009617   .31317 -.005204 -.012565  .314508  .000428
GW   356    1 -.005204 -.012565  .314508       .0   -.0136  .315847  .000428
GW   357    1       .0   -.0136  .315847  .005204 -.012565  .317185  .000428
GW   358    1  .005204 -.012565  .317185  .009617 -.009617  .318523  .000428
GW   359    1  .009617 -.009617  .318523  .012565 -.005204  .319862  .000428
GW   360    1  .012565 -.005204  .319862    .0136       .0    .3212  .000428
GE 0
EX 0 121 1 0 1 0
FR 0 255 0 0 1050 23.3333
EN

